tests/data/state_estimation/unbalanced-power-measurements/input.json
{
    "version": "1.0",
    "type": "input",
    "is_batch": false,
    "attributes": {
        "line": [
            "id",
            "from_node",
            "to_node",
            "from_status",
            "to_status",
            "r1",
            "x1",
            "c1",
            "tan1",
            "i_n"
        ],
        "link": [
            "id",
            "from_node",
            "to_node",
            "from_status",
            "to_status"
        ],
        "node": [
            "id",
            "u_rated"
        ],
        "source": [
            "id",
            "node",
            "status",
            "u_ref",
            "sk",
            "rx_ratio",
            "z01_ratio"
        ],
        "sym_load": [
            "id",
            "node",
            "status",
            "type",
            "p_specified",
            "q_specified"
        ],
        "sym_power_sensor": [
            "id",
            "measured_object",
            "measured_terminal_type",
            "power_sigma",
            "p_measured",
            "q_measured"
        ],
        "sym_voltage_sensor": [
            "id",
            "measured_object",
            "u_sigma",
            "u_measured",
            "u_angle_measured"
        ]
    },
    "data": {
        "line": [
            [
                7,
                1,
                2,
                1,
                1,
                1.0,
                10.0,
                4.0e-3,
                0.1,
                500
            ],
            [
                8,
                1,
                2,
                1,
                1,
                6.0,
                11,
                4.0e-3,
                0.1,
                500
            ],
            [
                9,
                1,
                2,
                1,
                1,
                7,
                10,
                4.0e-3,
                0.1,
                500
            ],
            [
                10,
                2,
                4,
                0,
                0,
                3,
                4,
                2e-3,
                0.2,
                500
            ],
            [
                11,
                2,
                4,
                0,
                0,
                3,
                4,
                2e-3,
                0.1,
                500
            ]
        ],
        "link": [
            [
                12,
                4,
                6,
                1,
                1
            ],
            [
                13,
                4,
                5,
                1,
                1
            ]
        ],
        "node": [
            [
                0,
                20000
            ],
            [
                1,
                20000
            ],
            [
                2,
                20000
            ],
            [
                3,
                20000
            ],
            [
                4,
                20000
            ],
            [
                5,
                20000
            ],
            [
                6,
                20000
            ]
        ],
        "source": [
            [
                14,
                1,
                1,
                1,
                700000000,
                0.1,
                3
            ]
        ],
        "sym_load": [
            [
                15,
                2,
                1,
                0,
                0,
                0
            ],
            [
                16,
                2,
                1,
                0,
                0,
                0
            ],
            [
                17,
                5,
                0,
                0,
                0,
                0
            ],
            [
                18,
                6,
                0,
                0,
                0,
                0
            ]
        ],
        "sym_power_sensor": [
            [
                21,
                15,
                4,
                200000,
                -2000000,
                40000
            ],
            [
                22,
                16,
                4,
                30000,
                300000,
                300000
            ],
            [
                23,
                7,
                1,
                200000,
                -2000000,
                20000
            ],
            [
                24,
                8,
                1,
                300000,
                3000000,
                -470000
            ],
            [
                25,
                9,
                1,
                200000,
                -2000000,
                200000
            ]
        ],
        "sym_voltage_sensor": [
            [
                19,
                3,
                2000,
                20000,
                0
            ],
            [
                20,
                2,
                2000,
                20000,
                0
            ]
        ]
    }
}